<?xml version="1.0" encoding="utf-8"?>
<!DOCTYPE network SYSTEM "http://www.matsim.org/files/dtd/network_v2.dtd">
<network>
  <nodes>
    <!-- Grid nodes: 10x10 grid -->
    <!-- Row 1 (y=51.92) -->
    <node id="n_0_9" x="-8.52" y="51.92"/>
    <node id="n_1_9" x="-8.51" y="51.92"/>
    <node id="n_2_9" x="-8.50" y="51.92"/>
    <node id="n_3_9" x="-8.49" y="51.92"/>
    <node id="n_4_9" x="-8.48" y="51.92"/>
    <node id="n_5_9" x="-8.47" y="51.92"/>
    <node id="n_6_9" x="-8.46" y="51.92"/>
    <node id="n_7_9" x="-8.45" y="51.92"/>
    
    <!-- Row 2 (y=51.915) -->
    <node id="n_0_8" x="-8.52" y="51.915"/>
    <node id="n_1_8" x="-8.51" y="51.915"/>
    <node id="n_2_8" x="-8.50" y="51.915"/>
    <node id="n_3_8" x="-8.49" y="51.915"/>
    <node id="n_4_8" x="-8.48" y="51.915"/>
    <node id="n_5_8" x="-8.47" y="51.915"/>
    <node id="n_6_8" x="-8.46" y="51.915"/>
    <node id="n_7_8" x="-8.45" y="51.915"/>
    
    <!-- Row 3 (y=51.91) -->
    <node id="n_0_7" x="-8.52" y="51.91"/>
    <node id="n_1_7" x="-8.51" y="51.91"/>
    <node id="n_2_7" x="-8.50" y="51.91"/>
    <node id="n_3_7" x="-8.49" y="51.91"/>
    <node id="n_4_7" x="-8.48" y="51.91"/>
    <node id="n_5_7" x="-8.47" y="51.91"/>
    <node id="n_6_7" x="-8.46" y="51.91"/>
    <node id="n_7_7" x="-8.45" y="51.91"/>
    
    <!-- Row 4 (y=51.905) -->
    <node id="n_0_6" x="-8.52" y="51.905"/>
    <node id="n_1_6" x="-8.51" y="51.905"/>
    <node id="n_2_6" x="-8.50" y="51.905"/>
    <node id="n_3_6" x="-8.49" y="51.905"/>
    <node id="n_4_6" x="-8.48" y="51.905"/>
    <node id="n_5_6" x="-8.47" y="51.905"/>
    <node id="n_6_6" x="-8.46" y="51.905"/>
    <node id="n_7_6" x="-8.45" y="51.905"/>
    
    <!-- Row 5 (y=51.90) -->
    <node id="n_0_5" x="-8.52" y="51.90"/>
    <node id="n_1_5" x="-8.51" y="51.90"/>
    <node id="n_2_5" x="-8.50" y="51.90"/>
    <node id="n_3_5" x="-8.49" y="51.90"/>
    <node id="n_4_5" x="-8.48" y="51.90"/>
    <node id="n_5_5" x="-8.47" y="51.90"/>
    <node id="n_6_5" x="-8.46" y="51.90"/>
    <node id="n_7_5" x="-8.45" y="51.90"/>
    
    <!-- Row 6 (y=51.895) -->
    <node id="n_0_4" x="-8.52" y="51.895"/>
    <node id="n_1_4" x="-8.51" y="51.895"/>
    <node id="n_2_4" x="-8.50" y="51.895"/>
    <node id="n_3_4" x="-8.49" y="51.895"/>
    <node id="n_4_4" x="-8.48" y="51.895"/>
    <node id="n_5_4" x="-8.47" y="51.895"/>
    <node id="n_6_4" x="-8.46" y="51.895"/>
    <node id="n_7_4" x="-8.45" y="51.895"/>
    
    <!-- Row 7 (y=51.89) -->
    <node id="n_0_3" x="-8.52" y="51.89"/>
    <node id="n_1_3" x="-8.51" y="51.89"/>
    <node id="n_2_3" x="-8.50" y="51.89"/>
    <node id="n_3_3" x="-8.49" y="51.89"/>
    <node id="n_4_3" x="-8.48" y="51.89"/>
    <node id="n_5_3" x="-8.47" y="51.89"/>
    <node id="n_6_3" x="-8.46" y="51.89"/>
    <node id="n_7_3" x="-8.45" y="51.89"/>
    
    <!-- Row 8 (y=51.885) -->
    <node id="n_0_2" x="-8.52" y="51.885"/>
    <node id="n_1_2" x="-8.51" y="51.885"/>
    <node id="n_2_2" x="-8.50" y="51.885"/>
    <node id="n_3_2" x="-8.49" y="51.885"/>
    <node id="n_4_2" x="-8.48" y="51.885"/>
    <node id="n_5_2" x="-8.47" y="51.885"/>
    <node id="n_6_2" x="-8.46" y="51.885"/>
    <node id="n_7_2" x="-8.45" y="51.885"/>
  </nodes>
  
  <links capperiod="01:00:00">
    <!-- Horizontal roads (East-West) -->
    <!-- Row 1 -->
    <link id="h_0_9_to_1_9" from="n_0_9" to="n_1_9" length="1000.0" freespeed="13.89" capacity="2000" permlanes="2" modes="car"/>
    <link id="h_1_9_to_2_9" from="n_1_9" to="n_2_9" length="1000.0" freespeed="13.89" capacity="2000" permlanes="2" modes="car"/>
    <link id="h_2_9_to_3_9" from="n_2_9" to="n_3_9" length="1000.0" freespeed="13.89" capacity="2000" permlanes="2" modes="car"/>
    <link id="h_3_9_to_4_9" from="n_3_9" to="n_4_9" length="1000.0" freespeed="13.89" capacity="2000" permlanes="2" modes="car"/>
    <link id="h_4_9_to_5_9" from="n_4_9" to="n_5_9" length="1000.0" freespeed="13.89" capacity="2000" permlanes="2" modes="car"/>
    <link id="h_5_9_to_6_9" from="n_5_9" to="n_6_9" length="1000.0" freespeed="13.89" capacity="2000" permlanes="2" modes="car"/>
    <link id="h_6_9_to_7_9" from="n_6_9" to="n_7_9" length="1000.0" freespeed="13.89" capacity="2000" permlanes="2" modes="car"/>
    
    <!-- Row 2 -->
    <link id="h_0_8_to_1_8" from="n_0_8" to="n_1_8" length="1000.0" freespeed="13.89" capacity="2000" permlanes="2" modes="car"/>
    <link id="h_1_8_to_2_8" from="n_1_8" to="n_2_8" length="1000.0" freespeed="13.89" capacity="2000" permlanes="2" modes="car"/>
    <link id="h_2_8_to_3_8" from="n_2_8" to="n_3_8" length="1000.0" freespeed="13.89" capacity="2000" permlanes="2" modes="car"/>
    <link id="h_3_8_to_4_8" from="n_3_8" to="n_4_8" length="1000.0" freespeed="11.11" capacity="1000" permlanes="1" modes="car"/>
    <link id="h_4_8_to_5_8" from="n_4_8" to="n_5_8" length="1000.0" freespeed="11.11" capacity="1000" permlanes="1" modes="car"/>
    <link id="h_5_8_to_6_8" from="n_5_8" to="n_6_8" length="1000.0" freespeed="11.11" capacity="1000" permlanes="1" modes="car"/>
    <link id="h_6_8_to_7_8" from="n_6_8" to="n_7_8" length="1000.0" freespeed="11.11" capacity="1000" permlanes="1" modes="car"/>
    
    <!-- Row 3 -->
    <link id="h_0_7_to_1_7" from="n_0_7" to="n_1_7" length="1000.0" freespeed="13.89" capacity="2000" permlanes="2" modes="car"/>
    <link id="h_1_7_to_2_7" from="n_1_7" to="n_2_7" length="1000.0" freespeed="13.89" capacity="2000" permlanes="2" modes="car"/>
    <link id="h_2_7_to_3_7" from="n_2_7" to="n_3_7" length="1000.0" freespeed="13.89" capacity="2000" permlanes="2" modes="car"/>
    <link id="h_3_7_to_4_7" from="n_3_7" to="n_4_7" length="1000.0" freespeed="13.89" capacity="2000" permlanes="2" modes="car"/>
    <link id="h_4_7_to_5_7" from="n_4_7" to="n_5_7" length="1000.0" freespeed="13.89" capacity="2000" permlanes="2" modes="car"/>
    <link id="h_5_7_to_6_7" from="n_5_7" to="n_6_7" length="1000.0" freespeed="13.89" capacity="2000" permlanes="2" modes="car"/>
    <link id="h_6_7_to_7_7" from="n_6_7" to="n_7_7" length="1000.0" freespeed="13.89" capacity="2000" permlanes="2" modes="car"/>
    
    <!-- Row 4 -->
    <link id="h_0_6_to_1_6" from="n_0_6" to="n_1_6" length="1000.0" freespeed="11.11" capacity="1000" permlanes="1" modes="car"/>
    <link id="h_1_6_to_2_6" from="n_1_6" to="n_2_6" length="1000.0" freespeed="11.11" capacity="1000" permlanes="1" modes="car"/>
    <link id="h_2_6_to_3_6" from="n_2_6" to="n_3_6" length="1000.0" freespeed="11.11" capacity="1000" permlanes="1" modes="car"/>
    <link id="h_3_6_to_4_6" from="n_3_6" to="n_4_6" length="1000.0" freespeed="11.11" capacity="1000" permlanes="1" modes="car"/>
    <link id="h_4_6_to_5_6" from="n_4_6" to="n_5_6" length="1000.0" freespeed="11.11" capacity="1000" permlanes="1" modes="car"/>
    <link id="h_5_6_to_6_6" from="n_5_6" to="n_6_6" length="1000.0" freespeed="11.11" capacity="1000" permlanes="1" modes="car"/>
    <link id="h_6_6_to_7_6" from="n_6_6" to="n_7_6" length="1000.0" freespeed="11.11" capacity="1000" permlanes="1" modes="car"/>
    
    <!-- Row 5 -->
    <link id="h_0_5_to_1_5" from="n_0_5" to="n_1_5" length="1000.0" freespeed="11.11" capacity="1000" permlanes="1" modes="car"/>
    <link id="h_1_5_to_2_5" from="n_1_5" to="n_2_5" length="1000.0" freespeed="11.11" capacity="1000" permlanes="1" modes="car"/>
    <link id="h_2_5_to_3_5" from="n_2_5" to="n_3_5" length="1000.0" freespeed="11.11" capacity="1000" permlanes="1" modes="car"/>
    <link id="h_3_5_to_4_5" from="n_3_5" to="n_4_5" length="1000.0" freespeed="11.11" capacity="1000" permlanes="1" modes="car"/>
    <link id="h_4_5_to_5_5" from="n_4_5" to="n_5_5" length="1000.0" freespeed="11.11" capacity="1000" permlanes="1" modes="car"/>
    <link id="h_5_5_to_6_5" from="n_5_5" to="n_6_5" length="1000.0" freespeed="11.11" capacity="1000" permlanes="1" modes="car"/>
    <link id="h_6_5_to_7_5" from="n_6_5" to="n_7_5" length="1000.0" freespeed="11.11" capacity="1000" permlanes="1" modes="car"/>
    
    <!-- Row 6 -->
    <link id="h_0_4_to_1_4" from="n_0_4" to="n_1_4" length="1000.0" freespeed="11.11" capacity="1000" permlanes="1" modes="car"/>
    <link id="h_1_4_to_2_4" from="n_1_4" to="n_2_4" length="1000.0" freespeed="11.11" capacity="1000" permlanes="1" modes="car"/>
    <link id="h_2_4_to_3_4" from="n_2_4" to="n_3_4" length="1000.0" freespeed="11.11" capacity="1000" permlanes="1" modes="car"/>
    <link id="h_3_4_to_4_4" from="n_3_4" to="n_4_4" length="1000.0" freespeed="11.11" capacity="1000" permlanes="1" modes="car"/>
    <link id="h_4_4_to_5_4" from="n_4_4" to="n_5_4" length="1000.0" freespeed="11.11" capacity="1000" permlanes="1" modes="car"/>
    <link id="h_5_4_to_6_4" from="n_5_4" to="n_6_4" length="1000.0" freespeed="11.11" capacity="1000" permlanes="1" modes="car"/>
    <link id="h_6_4_to_7_4" from="n_6_4" to="n_7_4" length="1000.0" freespeed="11.11" capacity="1000" permlanes="1" modes="car"/>
    
    <!-- Row 7 -->
    <link id="h_0_3_to_1_3" from="n_0_3" to="n_1_3" length="1000.0" freespeed="11.11" capacity="1000" permlanes="1" modes="car"/>
    <link id="h_1_3_to_2_3" from="n_1_3" to="n_2_3" length="1000.0" freespeed="11.11" capacity="1000" permlanes="1" modes="car"/>
    <link id="h_2_3_to_3_3" from="n_2_3" to="n_3_3" length="1000.0" freespeed="11.11" capacity="1000" permlanes="1" modes="car"/>
    <link id="h_3_3_to_4_3" from="n_3_3" to="n_4_3" length="1000.0" freespeed="11.11" capacity="1000" permlanes="1" modes="car"/>
    <link id="h_4_3_to_5_3" from="n_4_3" to="n_5_3" length="1000.0" freespeed="11.11" capacity="1000" permlanes="1" modes="car"/>
    <link id="h_5_3_to_6_3" from="n_5_3" to="n_6_3" length="1000.0" freespeed="11.11" capacity="1000" permlanes="1" modes="car"/>
    <link id="h_6_3_to_7_3" from="n_6_3" to="n_7_3" length="1000.0" freespeed="11.11" capacity="1000" permlanes="1" modes="car"/>
    
    <!-- Row 8 -->
    <link id="h_0_2_to_1_2" from="n_0_2" to="n_1_2" length="1000.0" freespeed="11.11" capacity="1000" permlanes="1" modes="car"/>
    <link id="h_1_2_to_2_2" from="n_1_2" to="n_2_2" length="1000.0" freespeed="11.11" capacity="1000" permlanes="1" modes="car"/>
    <link id="h_2_2_to_3_2" from="n_2_2" to="n_3_2" length="1000.0" freespeed="11.11" capacity="1000" permlanes="1" modes="car"/>
    <link id="h_3_2_to_4_2" from="n_3_2" to="n_4_2" length="1000.0" freespeed="11.11" capacity="1000" permlanes="1" modes="car"/>
    <link id="h_4_2_to_5_2" from="n_4_2" to="n_5_2" length="1000.0" freespeed="11.11" capacity="1000" permlanes="1" modes="car"/>
    <link id="h_5_2_to_6_2" from="n_5_2" to="n_6_2" length="1000.0" freespeed="11.11" capacity="1000" permlanes="1" modes="car"/>
    <link id="h_6_2_to_7_2" from="n_6_2" to="n_7_2" length="1000.0" freespeed="11.11" capacity="1000" permlanes="1" modes="car"/>
    
    <!-- Vertical roads (North-South) -->
    <!-- Column 0 -->
    <link id="v_0_9_to_0_8" from="n_0_9" to="n_0_8" length="600.0" freespeed="11.11" capacity="1000" permlanes="1" modes="car"/>
    <link id="v_0_8_to_0_7" from="n_0_8" to="n_0_7" length="600.0" freespeed="11.11" capacity="1000" permlanes="1" modes="car"/>
    <link id="v_0_7_to_0_6" from="n_0_7" to="n_0_6" length="600.0" freespeed="11.11" capacity="1000" permlanes="1" modes="car"/>
    <link id="v_0_6_to_0_5" from="n_0_6" to="n_0_5" length="600.0" freespeed="11.11" capacity="1000" permlanes="1" modes="car"/>
    <link id="v_0_5_to_0_4" from="n_0_5" to="n_0_4" length="600.0" freespeed="11.11" capacity="1000" permlanes="1" modes="car"/>
    <link id="v_0_4_to_0_3" from="n_0_4" to="n_0_3" length="600.0" freespeed="11.11" capacity="1000" permlanes="1" modes="car"/>
    <link id="v_0_3_to_0_2" from="n_0_3" to="n_0_2" length="600.0" freespeed="11.11" capacity="1000" permlanes="1" modes="car"/>
    
    <!-- Column 1 -->
    <link id="v_1_9_to_1_8" from="n_1_9" to="n_1_8" length="600.0" freespeed="13.89" capacity="2000" permlanes="2" modes="car"/>
    <link id="v_1_8_to_1_7" from="n_1_8" to="n_1_7" length="600.0" freespeed="13.89" capacity="2000" permlanes="2" modes="car"/>
    <link id="v_1_7_to_1_6" from="n_1_7" to="n_1_6" length="600.0" freespeed="13.89" capacity="2000" permlanes="2" modes="car"/>
    <link id="v_1_6_to_1_5" from="n_1_6" to="n_1_5" length="600.0" freespeed="13.89" capacity="2000" permlanes="2" modes="car"/>
    <link id="v_1_5_to_1_4" from="n_1_5" to="n_1_4" length="600.0" freespeed="13.89" capacity="2000" permlanes="2" modes="car"/>
    <link id="v_1_4_to_1_3" from="n_1_4" to="n_1_3" length="600.0" freespeed="13.89" capacity="2000" permlanes="2" modes="car"/>
    <link id="v_1_3_to_1_2" from="n_1_3" to="n_1_2" length="600.0" freespeed="13.89" capacity="2000" permlanes="2" modes="car"/>
    
    <!-- Column 2 -->
    <link id="v_2_9_to_2_8" from="n_2_9" to="n_2_8" length="600.0" freespeed="13.89" capacity="2000" permlanes="2" modes="car"/>
    <link id="v_2_8_to_2_7" from="n_2_8" to="n_2_7" length="600.0" freespeed="13.89" capacity="2000" permlanes="2" modes="car"/>
    <link id="v_2_7_to_2_6" from="n_2_7" to="n_2_6" length="600.0" freespeed="13.89" capacity="2000" permlanes="2" modes="car"/>
    <link id="v_2_6_to_2_5" from="n_2_6" to="n_2_5" length="600.0" freespeed="13.89" capacity="2000" permlanes="2" modes="car"/>
    <link id="v_2_5_to_2_4" from="n_2_5" to="n_2_4" length="600.0" freespeed="13.89" capacity="2000" permlanes="2" modes="car"/>
    <link id="v_2_4_to_2_3" from="n_2_4" to="n_2_3" length="600.0" freespeed="13.89" capacity="2000" permlanes="2" modes="car"/>
    <link id="v_2_3_to_2_2" from="n_2_3" to="n_2_2" length="600.0" freespeed="13.89" capacity="2000" permlanes="2" modes="car"/>
    
    <!-- Column 3 -->
    <link id="v_3_9_to_3_8" from="n_3_9" to="n_3_8" length="600.0" freespeed="11.11" capacity="1000" permlanes="1" modes="car"/>
    <link id="v_3_8_to_3_7" from="n_3_8" to="n_3_7" length="600.0" freespeed="11.11" capacity="1000" permlanes="1" modes="car"/>
    <link id="v_3_7_to_3_6" from="n_3_7" to="n_3_6" length="600.0" freespeed="11.11" capacity="1000" permlanes="1" modes="car"/>
    <link id="v_3_6_to_3_5" from="n_3_6" to="n_3_5" length="600.0" freespeed="11.11" capacity="1000" permlanes="1" modes="car"/>
    <link id="v_3_5_to_3_4" from="n_3_5" to="n_3_4" length="600.0" freespeed="11.11" capacity="1000" permlanes="1" modes="car"/>
    <link id="v_3_4_to_3_3" from="n_3_4" to="n_3_3" length="600.0" freespeed="11.11" capacity="1000" permlanes="1" modes="car"/>
    <link id="v_3_3_to_3_2" from="n_3_3" to="n_3_2" length="600.0" freespeed="11.11" capacity="1000" permlanes="1" modes="car"/>
    
    <!-- Column 4 -->
    <link id="v_4_9_to_4_8" from="n_4_9" to="n_4_8" length="600.0" freespeed="13.89" capacity="2000" permlanes="2" modes="car"/>
    <link id="v_4_8_to_4_7" from="n_4_8" to="n_4_7" length="600.0" freespeed="13.89" capacity="2000" permlanes="2" modes="car"/>
    <link id="v_4_7_to_4_6" from="n_4_7" to="n_4_6" length="600.0" freespeed="13.89" capacity="2000" permlanes="2" modes="car"/>
    <link id="v_4_6_to_4_5" from="n_4_6" to="n_4_5" length="600.0" freespeed="13.89" capacity="2000" permlanes="2" modes="car"/>
    <link id="v_4_5_to_4_4" from="n_4_5" to="n_4_4" length="600.0" freespeed="13.89" capacity="2000" permlanes="2" modes="car"/>
    <link id="v_4_4_to_4_3" from="n_4_4" to="n_4_3" length="600.0" freespeed="13.89" capacity="2000" permlanes="2" modes="car"/>
    <link id="v_4_3_to_4_2" from="n_4_3" to="n_4_2" length="600.0" freespeed="13.89" capacity="2000" permlanes="2" modes="car"/>
    
    <!-- Column 5 -->
    <link id="v_5_9_to_5_8" from="n_5_9" to="n_5_8" length="600.0" freespeed="11.11" capacity="1000" permlanes="1" modes="car"/>
    <link id="v_5_8_to_5_7" from="n_5_8" to="n_5_7" length="600.0" freespeed="11.11" capacity="1000" permlanes="1" modes="car"/>
    <link id="v_5_7_to_5_6" from="n_5_7" to="n_5_6" length="600.0" freespeed="11.11" capacity="1000" permlanes="1" modes="car"/>
    <link id="v_5_6_to_5_5" from="n_5_6" to="n_5_5" length="600.0" freespeed="11.11" capacity="1000" permlanes="1" modes="car"/>
    <link id="v_5_5_to_5_4" from="n_5_5" to="n_5_4" length="600.0" freespeed="11.11" capacity="1000" permlanes="1" modes="car"/>
    <link id="v_5_4_to_5_3" from="n_5_4" to="n_5_3" length="600.0" freespeed="11.11" capacity="1000" permlanes="1" modes="car"/>
    <link id="v_5_3_to_5_2" from="n_5_3" to="n_5_2" length="600.0" freespeed="11.11" capacity="1000" permlanes="1" modes="car"/>
    <!-- Column 6 -->
    <link id="v_6_9_to_6_8" from="n_6_9" to="n_6_8" length="600.0" freespeed="13.89" capacity="2000" permlanes="2" modes="car"/>
    <link id="v_6_8_to_6_7" from="n_6_8" to="n_6_7" length="600.0" freespeed="13.89" capacity="2000" permlanes="2" modes="car"/>
    <link id="v_6_7_to_6_6" from="n_6_7" to="n_6_6" length="600.0" freespeed="13.89" capacity="2000" permlanes="2" modes="car"/>
    <link id="v_6_6_to_6_5" from="n_6_6" to="n_6_5" length="600.0" freespeed="13.89" capacity="2000" permlanes="2" modes="car"/>
    <link id="v_6_5_to_6_4" from="n_6_5" to="n_6_4" length="600.0" freespeed="13.89" capacity="2000" permlanes="2" modes="car"/>
    <link id="v_6_4_to_6_3" from="n_6_4" to="n_6_3" length="600.0" freespeed="13.89" capacity="2000" permlanes="2" modes="car"/>
    <link id="v_6_3_to_6_2" from="n_6_3" to="n_6_2" length="600.0" freespeed="13.89" capacity="2000" permlanes="2" modes="car"/>

    <!-- Column 7 -->
    <link id="v_7_9_to_7_8" from="n_7_9" to="n_7_8" length="600.0" freespeed="11.11" capacity="1000" permlanes="1" modes="car"/>
    <link id="v_7_8_to_7_7" from="n_7_8" to="n_7_7" length="600.0" freespeed="11.11" capacity="1000" permlanes="1" modes="car"/>
    <link id="v_7_7_to_7_6" from="n_7_7" to="n_7_6" length="600.0" freespeed="11.11" capacity="1000" permlanes="1" modes="car"/>
    <link id="v_7_6_to_7_5" from="n_7_6" to="n_7_5" length="600.0" freespeed="11.11" capacity="1000" permlanes="1" modes="car"/>
    <link id="v_7_5_to_7_4" from="n_7_5" to="n_7_4" length="600.0" freespeed="11.11" capacity="1000" permlanes="1" modes="car"/>
    <link id="v_7_4_to_7_3" from="n_7_4" to="n_7_3" length="600.0" freespeed="11.11" capacity="1000" permlanes="1" modes="car"/>
    <link id="v_7_3_to_7_2" from="n_7_3" to="n_7_2" length="600.0" freespeed="11.11" capacity="1000" permlanes="1" modes="car"/>
    </links>
</network>
