<?xml version="1.0" encoding="utf-8"?>
<!DOCTYPE population SYSTEM "http://www.matsim.org/files/dtd/population_v6.dtd">
<population>
<!--  ======================================================================  -->
<person id="agent_0">
<plan selected="yes">
<activity type="home" link="397696_397707_0" end_time="08:55:21"> </activity>
<leg mode="car"> </leg>
<activity type="work" link="2037927_2037907_0" end_time="17:00:20"> </activity>
<leg mode="car"> </leg>
<activity type="home" link="397696_397707_0"> </activity>
</plan>
</person>
<!--  ======================================================================  -->
<person id="agent_1">
<plan selected="yes">
<activity type="home" link="348633860_348633862_0" end_time="08:58:26"> </activity>
<leg mode="car"> </leg>
<activity type="work" link="1268891449_769413623_0" end_time="17:29:09"> </activity>
<leg mode="car"> </leg>
<activity type="home" link="348633860_348633862_0"> </activity>
</plan>
</person>
<!--  ======================================================================  -->
<person id="agent_2">
<plan selected="yes">
<activity type="home" link="6766743614_1486417545_0" end_time="08:48:07"> </activity>
<leg mode="car"> </leg>
<activity type="work" link="938777248_938777246_0" end_time="17:58:50"> </activity>
<leg mode="car"> </leg>
<activity type="home" link="6766743614_1486417545_0"> </activity>
</plan>
</person>
<!--  ======================================================================  -->
<person id="agent_3">
<plan selected="yes">
<activity type="home" link="324651574_7308861541_0" end_time="08:01:47"> </activity>
<leg mode="car"> </leg>
<activity type="work" link="414022317_410198987_0" end_time="17:32:29"> </activity>
<leg mode="car"> </leg>
<activity type="home" link="324651574_7308861541_0"> </activity>
</plan>
</person>
<!--  ======================================================================  -->
<person id="agent_4">
<plan selected="yes">
<activity type="home" link="882652918_882652838_0" end_time="08:40:29"> </activity>
<leg mode="car"> </leg>
<activity type="work" link="829977277_349314080_0" end_time="17:50:07"> </activity>
<leg mode="car"> </leg>
<activity type="home" link="882652918_882652838_0"> </activity>
</plan>
</person>
<!--  ======================================================================  -->
<person id="agent_5">
<plan selected="yes">
<activity type="home" link="1200321384_1200320313_0" end_time="08:49:50"> </activity>
<leg mode="car"> </leg>
<activity type="work" link="893160920_893160925_0" end_time="17:49:01"> </activity>
<leg mode="car"> </leg>
<activity type="home" link="1200321384_1200320313_0"> </activity>
</plan>
</person>
<!--  ======================================================================  -->
<person id="agent_6">
<plan selected="yes">
<activity type="home" link="13370746417_13370799222_0" end_time="08:29:49"> </activity>
<leg mode="car"> </leg>
<activity type="work" link="508073106_939235228_0" end_time="17:01:53"> </activity>
<leg mode="car"> </leg>
<activity type="home" link="13370746417_13370799222_0"> </activity>
</plan>
</person>
<!--  ======================================================================  -->
<person id="agent_7">
<plan selected="yes">
<activity type="home" link="799486825_830645003_0" end_time="08:21:36"> </activity>
<leg mode="car"> </leg>
<activity type="work" link="330102950_330102951_0" end_time="17:01:25"> </activity>
<leg mode="car"> </leg>
<activity type="home" link="799486825_830645003_0"> </activity>
</plan>
</person>
<!--  ======================================================================  -->
<person id="agent_8">
<plan selected="yes">
<activity type="home" link="1514272451_351184614_0" end_time="08:39:13"> </activity>
<leg mode="car"> </leg>
<activity type="work" link="354163_358515_0" end_time="17:55:46"> </activity>
<leg mode="car"> </leg>
<activity type="home" link="1514272451_351184614_0"> </activity>
</plan>
</person>
<!--  ======================================================================  -->
<person id="agent_9">
<plan selected="yes">
<activity type="home" link="1077868583_1515621488_0" end_time="08:54:27"> </activity>
<leg mode="car"> </leg>
<activity type="work" link="830437725_830437707_0" end_time="17:04:06"> </activity>
<leg mode="car"> </leg>
<activity type="home" link="1077868583_1515621488_0"> </activity>
</plan>
</person>
<!--  ======================================================================  -->
</population>
